[General]
network = Scenario
sim-time-limit = 60s
debug-on-errors = true
cmdenv-express-mode = true
image-path = ../../../../images

# UDPBasicApp
#Scenario.node[*].numUdpApps = 1
#Scenario.node[*].udpApp[0].typename = "UDPBasicApp"
#Scenario.node[*].udpApp[0].destAddresses = "224.0.0.1"
#Scenario.node[*].udpApp[0].multicastInterface = "wlan0"
#Scenario.node[*].udpApp[0].joinLocalMulticastGroups = true
#Scenario.node[*].udpApp[0].localPort = 9001
#Scenario.node[*].udpApp[0].destPort = 9001
#Scenario.node[*].udpApp[0].messageLength = 100B
#Scenario.node[*].udpApp[0].startTime = uniform(0s, 5s)
#Scenario.node[*].udpApp[0].sendInterval = 5s

Scenario.node[0].numPingApps = 1
Scenario.node[0].pingApp[0].startTime = uniform(0s,2s)
Scenario.node[0].pingApp[0].printPing = true
Scenario.node[0].pingApp[0].destAddr = "10.0.0.100"
Scenario.node[0].pingApp[0].packetSize = 1000B
Scenario.node[0].pingApp[0].sendInterval = 0.3s
Scenario.node[*].pingApp[0].printPing = true

Scenario.node[0].numUdpApps = 1
Scenario.node[0].udpApp[0].typename = "UDPBasicApp"
Scenario.node[0].udpApp[0].destAddresses = "10.0.0.100"
Scenario.node[0].udpApp[0].localPort = 5000 
Scenario.node[0].udpApp[0].destPort = 5000 
Scenario.node[0].udpApp[0].messageLength = 1000B # message length
Scenario.node[0].udpApp[0].sendInterval = 0.5s # transmit data time function
Scenario.node[0].udpApp[0].packetName = "UDPData"   #// UDP data packets


Scenario.node[1].numUdpApps = 1
Scenario.node[1].udpApp[0].typename = "UDPSink"
Scenario.node[1].udpApp[0].localPort=5000

# Ieee80211MgmtAdhoc
Scenario.node[*].wlan[0].mgmtType = "Ieee80211MgmtAdhoc"
Scenario.node[*].wlan[0].radio.transmitter.power = 2mW
Scenario.node[*].wlan[*].opMode = "a"
Scenario.node[*].wlan[*].bitrate = 6Mbps
Scenario.radioMedium.pathLossType = "FreeSpacePathLoss"

#Scenario.node[*].forwarding = true

#*.configurator.config = xml("<config><interface hosts='**' interfaces= 'wlan0' address='10.10.10.x' netmask='255.255.255.0'/></config>")
#*.node[*].ipv4.arp.typename = "GlobalArp"

# HostAutoConfigurator
Scenario.node[*].ac_wlan.interfaces = "wlan0"
Scenario.node[*].ac_wlan.addressBase = "10.0.0.0"
Scenario.node[*].ac_wlan.netmask = "255.255.0.0"
Scenario.node[*].ac_wlan.mcastGroups = "224.0.0.1"

# VeinsInetMobility
Scenario.node[*].mobilityType = "VeinsInetMobility"
Scenario.node[*].mobility.constraintAreaMinX = 0m
Scenario.node[*].mobility.constraintAreaMinY = 0m
Scenario.node[*].mobility.constraintAreaMinZ = 0m
Scenario.node[*].mobility.constraintAreaMaxX = 1000m
Scenario.node[*].mobility.constraintAreaMaxY = 1000m
Scenario.node[*].mobility.constraintAreaMaxZ = 0m

# VeinsInetManager
Scenario.manager.numVehicles = 10
Scenario.manager.updateInterval = 0.1s
Scenario.manager.host = "localhost"
Scenario.manager.port = 9999
Scenario.manager.autoShutdown = true
Scenario.manager.launchConfig = xmldoc("square.launchd.xml")
Scenario.manager.moduleType = "final_year_simulation.simulations.Car2"

Scenario.node[*].wlan[*].radio.displayCommunicationRange = true
Scenario.node[*].wlan[*].radio.displayInterferenceRange = true

**.vector-recording = true
